New Loadshape.Shape_1 npts=(1440 4 * 7 *) minterval=1 mult=(file=jupyter_profiles\profile_col_1.txt) useactual=no
New Loadshape.Shape_2 npts=(1440 4 * 7 *) minterval=1 mult=(file=jupyter_profiles\profile_col_2.txt) useactual=no
New Loadshape.Shape_3 npts=(1440 4 * 7 *) minterval=1 mult=(file=jupyter_profiles\profile_col_3.txt) useactual=no
New Loadshape.Shape_4 npts=(1440 4 * 7 *) minterval=1 mult=(file=jupyter_profiles\profile_col_4.txt) useactual=no
New Loadshape.Shape_5 npts=(1440 4 * 7 *) minterval=1 mult=(file=jupyter_profiles\profile_col_5.txt) useactual=no
New Loadshape.Shape_6 npts=(1440 4 * 7 *) minterval=1 mult=(file=jupyter_profiles\profile_col_6.txt) useactual=no
New Loadshape.Shape_7 npts=(1440 4 * 7 *) minterval=1 mult=(file=jupyter_profiles\profile_col_7.txt) useactual=no
New Loadshape.Shape_8 npts=(1440 4 * 7 *) minterval=1 mult=(file=jupyter_profiles\profile_col_8.txt) useactual=no
New Loadshape.Shape_9 npts=(1440 4 * 7 *) minterval=1 mult=(file=jupyter_profiles\profile_col_9.txt) useactual=no
New Loadshape.Shape_10 npts=(1440 4 * 7 *) minterval=1 mult=(file=jupyter_profiles\profile_col_10.txt) useactual=no
New Loadshape.Shape_11 npts=(1440 4 * 7 *) minterval=1 mult=(file=jupyter_profiles\profile_col_11.txt) useactual=no
New Loadshape.Shape_12 npts=(1440 4 * 7 *) minterval=1 mult=(file=jupyter_profiles\profile_col_12.txt) useactual=no
New Loadshape.Shape_13 npts=(1440 4 * 7 *) minterval=1 mult=(file=jupyter_profiles\profile_col_13.txt) useactual=no
New Loadshape.Shape_14 npts=(1440 4 * 7 *) minterval=1 mult=(file=jupyter_profiles\profile_col_14.txt) useactual=no
New Loadshape.Shape_15 npts=(1440 4 * 7 *) minterval=1 mult=(file=jupyter_profiles\profile_col_15.txt) useactual=no
New Loadshape.Shape_16 npts=(1440 4 * 7 *) minterval=1 mult=(file=jupyter_profiles\profile_col_16.txt) useactual=no
New Loadshape.Shape_17 npts=(1440 4 * 7 *) minterval=1 mult=(file=jupyter_profiles\profile_col_17.txt) useactual=no
New Loadshape.Shape_18 npts=(1440 4 * 7 *) minterval=1 mult=(file=jupyter_profiles\profile_col_18.txt) useactual=no
New Loadshape.Shape_19 npts=(1440 4 * 7 *) minterval=1 mult=(file=jupyter_profiles\profile_col_19.txt) useactual=no
New Loadshape.Shape_20 npts=(1440 4 * 7 *) minterval=1 mult=(file=jupyter_profiles\profile_col_20.txt) useactual=no
